https://stardowe.github.io/?A6s~5IuWJx
https://stardowe.github.io/?i7Sgn~C
https://stardowe.github.io/?A6uGt0~rJx
https://stardowe.github.io/?~AS8OStmJx
https://stardowe.github.io/?A6ek1F9J~x
https://stardowe.github.io/?A5fgn8eJx~
https://stardowe.github.io/?LO~28r5V9
https://stardowe.github.io/?ASihG8j~Jx
https://stardowe.github.io/?A1u~uid7Jx
https://stardowe.github.io/?A6QcUteJx~
https://stardowe.github.io/?A6~SBG64Jx
https://stardowe.github.io/?~A59GEu0Jx
https://stardowe.github.io/?A5ry~u9YJx
https://stardowe.github.io/?A55lNPLJx~
https://stardowe.github.io/?A6CFo~GnJx
https://stardowe.github.io/?AS~7jmC0Jx
https://stardowe.github.io/?AS~qnWfNJx
https://stardowe.github.io/?~6BcRnQ
https://stardowe.github.io/?A6~1HjZEJx
https://stardowe.github.io/?A5Ejs~clJx
https://stardowe.github.io/?A~631yJwJx
https://stardowe.github.io/?AdF~Xv6kJx
https://stardowe.github.io/?A5Fc0~ZcJx
https://stardowe.github.io/?AdIcFDcJ~x
https://stardowe.github.io/?Avc~HkpIJx
https://stardowe.github.io/?A5~OHpHFJx
https://stardowe.github.io/?LA~MT3DV9
https://stardowe.github.io/?A5sjQ~enJx
https://stardowe.github.io/?A6~Pd7VfJx
https://stardowe.github.io/?A~SCZVLhJx
https://stardowe.github.io/?n~0e3V3
https://stardowe.github.io/?ASwt95sJ~x
https://stardowe.github.io/?Ge~i7F1V9
https://stardowe.github.io/?A6dZWOMJx~
https://stardowe.github.io/?A5tt~9YIJx
https://stardowe.github.io/?A5~wBfVdJx
https://stardowe.github.io/?~A6Qjp2oJx
https://stardowe.github.io/?A6hHl~OgJx
https://stardowe.github.io/?A6jarDDJx~
https://stardowe.github.io/?ASxFziz~Jx
https://stardowe.github.io/?A5~IBHVBJx
https://stardowe.github.io/?LIy3pPV9~
https://stardowe.github.io/?A~6KE5x3Jx
https://stardowe.github.io/?A1~0ZYhSJx
https://stardowe.github.io/?AvhKMy~DJx
https://stardowe.github.io/?A5BbB~WjJx
https://stardowe.github.io/?AdaW1oQJx~
https://stardowe.github.io/?A~6Yce6DJx
https://stardowe.github.io/?A5wnTgdJx~
https://stardowe.github.io/?A5dWWZqJ~x
https://stardowe.github.io/?A5UlFBJJx~
https://stardowe.github.io/?A6edjqk~Jx
https://stardowe.github.io/?A5~7cm0QJx
https://stardowe.github.io/?AS~tJlc4Jx
https://stardowe.github.io/?A~SDTa1MJx
https://stardowe.github.io/?LU~Wu9oV9
https://stardowe.github.io/?A~5IVciiJx
https://stardowe.github.io/?A6pmi1V~Jx
https://stardowe.github.io/?~ASScsG2Jx
https://stardowe.github.io/?A63j~LvwJx
https://stardowe.github.io/?AvmF~jf1Jx
https://stardowe.github.io/?A5awwgE~Jx
https://stardowe.github.io/?A5fhbVOJ~x
https://stardowe.github.io/?A6Nl~whKJx
https://stardowe.github.io/?~aZlkn7
https://stardowe.github.io/?A~6s0w1PJx
https://stardowe.github.io/?ASM~jAaIJx
https://stardowe.github.io/?GZrZYv~V9
https://stardowe.github.io/?A6VHQpkJx~
https://stardowe.github.io/?A5wc5~hyJx
https://stardowe.github.io/?A6~pNqOOJx
https://stardowe.github.io/?ASAm9fYJ~x
https://stardowe.github.io/?~AoEoYg6Jx
https://stardowe.github.io/?AoFW~TuoJx
https://stardowe.github.io/?A6JXXoyJx~
https://stardowe.github.io/?~A6arlEbJx
https://stardowe.github.io/?A6~ZfFcuJx
https://stardowe.github.io/?AStheg2~Jx
https://stardowe.github.io/?A6xy~WI1Jx
https://stardowe.github.io/?A65Pvr~1Jx
https://stardowe.github.io/?ASYkqPNJ~x
https://stardowe.github.io/?A52uHOk~Jx
https://stardowe.github.io/?A6T~iCVdJx
https://stardowe.github.io/?A6G7uh2J~x
https://stardowe.github.io/?A5TpHFXJ~x
https://stardowe.github.io/?A6BxeOt~Jx
https://stardowe.github.io/?A5eG~MycJx
https://stardowe.github.io/?~AvUZWKtJx
https://stardowe.github.io/?~A5G3EprJx
https://stardowe.github.io/?A1ErwQu~Jx
https://stardowe.github.io/?A6UTe6nJx~
https://stardowe.github.io/?A6SbOM~SJx
https://stardowe.github.io/?A5YcjLVJ~x
https://stardowe.github.io/?ASRm05YJ~x
https://stardowe.github.io/?A~vMIhvhJx
https://stardowe.github.io/?A651OkY~Jx
https://stardowe.github.io/?AS~i3iRSJx
https://stardowe.github.io/?LM~kc91V9
https://stardowe.github.io/?ASeTUN~CJx
https://stardowe.github.io/?~NFgK8V
https://stardowe.github.io/?761o~nm
https://stardowe.github.io/?ASn~7TCEJx
https://stardowe.github.io/?A5JiYpF~Jx
https://stardowe.github.io/?G~GK2ABV9
https://stardowe.github.io/?~A6NwkDeJx
https://stardowe.github.io/?A1~kNR4NJx
https://stardowe.github.io/?ASwQWIY~Jx
https://stardowe.github.io/?A1BIUguJ~x
https://stardowe.github.io/?A5~c7ZB3Jx
https://stardowe.github.io/?A5XDF~eiJx
https://stardowe.github.io/?~A6P81yMJx
https://stardowe.github.io/?A60~Zm4hJx
https://stardowe.github.io/?A6iP1~m1Jx
https://stardowe.github.io/?A~6Gel6zJx
https://stardowe.github.io/?AvF9~9HyJx
https://stardowe.github.io/?AScKnvlJx~
https://stardowe.github.io/?ASUGjZzJ~x
https://stardowe.github.io/?A6wtnZcJx~
https://stardowe.github.io/?A5C~2hsPJx
https://stardowe.github.io/?A688M~zgJx
https://stardowe.github.io/?Av~rM6A5Jx
https://stardowe.github.io/?A5Lyw~K0Jx
https://stardowe.github.io/?A5RsN4wJx~
https://stardowe.github.io/?AvxN~xW5Jx
https://stardowe.github.io/?A6~fXX6QJx
https://stardowe.github.io/?2~SFPn3
https://stardowe.github.io/?A66O~gJzJx
https://stardowe.github.io/?A5LyW~FHJx
https://stardowe.github.io/?A5QxWp~TJx
https://stardowe.github.io/?~A5EuxTjJx
https://stardowe.github.io/?A6lAFV~1Jx
https://stardowe.github.io/?A5XZhqVJx~
https://stardowe.github.io/?~A6M3ldWJx
https://stardowe.github.io/?AxU~RuoaJx
https://stardowe.github.io/?A~68DsojJx
https://stardowe.github.io/?L8SwQV~V9
https://stardowe.github.io/?A5GxhB5~Jx
https://stardowe.github.io/?A53WSv~kJx
https://stardowe.github.io/?AvicwR~JJx
https://stardowe.github.io/?ASrgY2~dJx
https://stardowe.github.io/?A~SngG4vJx
https://stardowe.github.io/?ASRF2~jvJx
https://stardowe.github.io/?Ad~lIfGEJx
https://stardowe.github.io/?A6EO8f5Jx~
https://stardowe.github.io/?A6iVmIj~Jx
https://stardowe.github.io/?A5q1OJrJx~
https://stardowe.github.io/?A~6jm4piJx
https://stardowe.github.io/?A6Sc~DbXJx
https://stardowe.github.io/?A5y3ei~jJx
https://stardowe.github.io/?A6U~VjmqJx
https://stardowe.github.io/?A6v~UevxJx
https://stardowe.github.io/?A6WBRocJx~
https://stardowe.github.io/?A~S6UT2UJx
https://stardowe.github.io/?LONe~NqV9
https://stardowe.github.io/?A~dmC7JPJx
https://stardowe.github.io/?A6L5xh~LJx
https://stardowe.github.io/?A6vc~cqOJx
https://stardowe.github.io/?A6SnrwFJ~x
https://stardowe.github.io/?A6l64~N4Jx
https://stardowe.github.io/?A5rFnRYJx~
https://stardowe.github.io/?AdRH1qI~Jx
https://stardowe.github.io/?A6FMi~tqJx
https://stardowe.github.io/?qC~PQn3
https://stardowe.github.io/?A6Cr~x8nJx
https://stardowe.github.io/?ASdG8wTJ~x
https://stardowe.github.io/?A69~bBELJx
https://stardowe.github.io/?A~vfBm1ZJx
https://stardowe.github.io/?Avj9GUjJx~
https://stardowe.github.io/?A6NF0~cWJx
https://stardowe.github.io/?sVK~Pn3
https://stardowe.github.io/?~ASkNWqqJx
https://stardowe.github.io/?A6dO~dYLJx
https://stardowe.github.io/?A6q~ttdOJx
https://stardowe.github.io/?ASNYxV~iJx
https://stardowe.github.io/?A6MjjX5J~x
https://stardowe.github.io/?~A5efC9nJx
https://stardowe.github.io/?A61oWfpJ~x
https://stardowe.github.io/?A6s1Hv~JJx
https://stardowe.github.io/?Adr~9oXwJx
https://stardowe.github.io/?A6bDgxnJx~
https://stardowe.github.io/?A6q57~GTJx
https://stardowe.github.io/?A~5HpMZmJx
https://stardowe.github.io/?~AS5ZrdOJx
https://stardowe.github.io/?~A6BvZfeJx
https://stardowe.github.io/?A~6VJIj0Jx
https://stardowe.github.io/?A5sMxzjJ~x
https://stardowe.github.io/?A5nxnaHJ~x
https://stardowe.github.io/?A6XS~rxbJx
https://stardowe.github.io/?A6ri0g~EJx
https://stardowe.github.io/?~ASMT6mOJx
https://stardowe.github.io/?~A6SQ8JaJx
https://stardowe.github.io/?AgT~IDaaJx
https://stardowe.github.io/?ASj0BeXJ~x
https://stardowe.github.io/?A6XPvBJJx~
https://stardowe.github.io/?A6TG~Qg3Jx
https://stardowe.github.io/?AvI7~v9bJx
https://stardowe.github.io/?A5~05IioJx
https://stardowe.github.io/?A~d404VAJx
https://stardowe.github.io/?~A5OvcjPJx
https://stardowe.github.io/?A~6ptxMXJx
https://stardowe.github.io/?A5V4~xnOJx
https://stardowe.github.io/?A~5nxtDfJx
https://stardowe.github.io/?A6onsEkJ~x
https://stardowe.github.io/?A5HptHh~Jx
https://stardowe.github.io/?~A6BsvsYJx
https://stardowe.github.io/?~A5ohUAUJx
https://stardowe.github.io/?Av2OTZ~TJx
https://stardowe.github.io/?~A6oQUcoJx
https://stardowe.github.io/?AvMB~AShJx
https://stardowe.github.io/?v~EaD8E
https://stardowe.github.io/?A6~ZUQNRJx
https://stardowe.github.io/?A5mpSBh~Jx
https://stardowe.github.io/?ASUKPm~cJx
https://stardowe.github.io/?A6pFJjSJ~x
https://stardowe.github.io/?ASPO8~75Jx
https://stardowe.github.io/?A61e~nO5Jx
https://stardowe.github.io/?A~5TGHFfJx
https://stardowe.github.io/?AdnToM~GJx
https://stardowe.github.io/?Ao~FgwdNJx
https://stardowe.github.io/?A6~3jdW8Jx
https://stardowe.github.io/?A60SxJkJ~x
https://stardowe.github.io/?A5YBROZ~Jx
https://stardowe.github.io/?A5Eiv~d2Jx
https://stardowe.github.io/?AdSkc~NkJx
https://stardowe.github.io/?~Rh4Zn7
https://stardowe.github.io/?~i5wZn7
https://stardowe.github.io/?ASki3~INJx
https://stardowe.github.io/?A~6z01sbJx
https://stardowe.github.io/?A6l51P0J~x
https://stardowe.github.io/?Ad~k9H0iJx
https://stardowe.github.io/?A6~Q11YAJx
https://stardowe.github.io/?A52rP~SiJx
https://stardowe.github.io/?~AdKEAbgJx
https://stardowe.github.io/?A6EtLJwJ~x
https://stardowe.github.io/?Ad2fZ3~5Jx
https://stardowe.github.io/?A6ibFZP~Jx
https://stardowe.github.io/?AvIUMzQJx~
https://stardowe.github.io/?A6ZF5fqJx~
https://stardowe.github.io/?A6hD0~PCJx
https://stardowe.github.io/?A~5sZaP6Jx
https://stardowe.github.io/?A~54yKBvJx
https://stardowe.github.io/?ASVCgrqJ~x
https://stardowe.github.io/?ASfpaZoJ~x
https://stardowe.github.io/?ASr~63PmJx
https://stardowe.github.io/?A5zJrZ9Jx~
https://stardowe.github.io/?Ad8R75uJx~
https://stardowe.github.io/?~A6UlN8XJx
https://stardowe.github.io/?A~5NzaikJx
https://stardowe.github.io/?A~54lKkdJx
https://stardowe.github.io/?uNEvnx~
https://stardowe.github.io/?Av~gSMqsJx
https://stardowe.github.io/?~AgruT9IJx
https://stardowe.github.io/?ASRj~ve7Jx
https://stardowe.github.io/?A~5cceCOJx
https://stardowe.github.io/?A6Sh1OY~Jx
https://stardowe.github.io/?jBx~Enq
https://stardowe.github.io/?~AvIXBD5Jx
https://stardowe.github.io/?A6fDq90J~x
https://stardowe.github.io/?AgAYmGK~Jx
https://stardowe.github.io/?Avmgu~ewJx
https://stardowe.github.io/?A5~M8F6iJx
https://stardowe.github.io/?A504qB8~Jx
https://stardowe.github.io/?A~SFrAA0Jx
https://stardowe.github.io/?Ad9La~4UJx
https://stardowe.github.io/?AS0GlBN~Jx
https://stardowe.github.io/?ASOYs9lJx~
https://stardowe.github.io/?A6~jCp9TJx
https://stardowe.github.io/?~A6F1M3tJx
https://stardowe.github.io/?A52FZ~SHJx
https://stardowe.github.io/?AvxKMsiJ~x
https://stardowe.github.io/?A6207m~lJx
https://stardowe.github.io/?A5P9Gz~BJx
https://stardowe.github.io/?A1VNQ3aJx~
https://stardowe.github.io/?A54~kNsWJx
https://stardowe.github.io/?Ag7BHM1J~x
https://stardowe.github.io/?~A5AgKbpJx
https://stardowe.github.io/?~A5UFgl4Jx
https://stardowe.github.io/?A6t~JnRMJx
https://stardowe.github.io/?~A6qjP3lJx
https://stardowe.github.io/?A6Ui~aFNJx
https://stardowe.github.io/?A5DV~Mj2Jx
https://stardowe.github.io/?Agq9xaf~Jx
https://stardowe.github.io/?A~dsfXykJx
https://stardowe.github.io/?A64sHlvJx~
https://stardowe.github.io/?A5bK27~zJx
https://stardowe.github.io/?A6oU~puJJx
https://stardowe.github.io/?A5Ej~D0xJx
https://stardowe.github.io/?AShS1HcJx~
https://stardowe.github.io/?AvXXI~wUJx
https://stardowe.github.io/?A6x8gBxJx~
https://stardowe.github.io/?A6IIyJu~Jx
https://stardowe.github.io/?~A6CCOU9Jx
https://stardowe.github.io/?Av~op4LdJx
https://stardowe.github.io/?A5GRGJ1Jx~
https://stardowe.github.io/?A62lz~cWJx
https://stardowe.github.io/?Ag3G~Iv3Jx
https://stardowe.github.io/?A6HUmnFJx~
https://stardowe.github.io/?~A5xF8L3Jx
https://stardowe.github.io/?A6Fp~smMJx
https://stardowe.github.io/?A6f7cW~nJx
https://stardowe.github.io/?AS~CKItiJx
https://stardowe.github.io/?A5~30ajeJx
https://stardowe.github.io/?A6ls6R~cJx
https://stardowe.github.io/?AgRKl~6ZJx
https://stardowe.github.io/?ASql3nn~Jx
https://stardowe.github.io/?A6SjsaL~Jx
https://stardowe.github.io/?A~59EgXYJx
https://stardowe.github.io/?Av0Bi~G8Jx
https://stardowe.github.io/?A5~3uCuQJx
https://stardowe.github.io/?A5Xq0evJ~x
https://stardowe.github.io/?A5~dsnRFJx
https://stardowe.github.io/?A5fCU~BIJx
https://stardowe.github.io/?A5~yuCerJx
https://stardowe.github.io/?ASja94G~Jx
https://stardowe.github.io/?A6Z1QZXJ~x
https://stardowe.github.io/?AdTCgueJ~x
https://stardowe.github.io/?Ar~vmnd
https://stardowe.github.io/?A5qZAQSJ~x
https://stardowe.github.io/?AdFFHGvJ~x
https://stardowe.github.io/?A5230X5J~x
https://stardowe.github.io/?A5IxTuGJx~
https://stardowe.github.io/?A5Nr~hurJx
https://stardowe.github.io/?A~5IVxzLJx
https://stardowe.github.io/?A5heP~jTJx
https://stardowe.github.io/?AvezRv1Jx~
https://stardowe.github.io/?ASrEOWy~Jx
https://stardowe.github.io/?AvObGs6J~x
https://stardowe.github.io/?AvOw5en~Jx
https://stardowe.github.io/?A68Dln~eJx
https://stardowe.github.io/?Avx5032Jx~
https://stardowe.github.io/?A5WmTo~YJx
https://stardowe.github.io/?A~6gNZPqJx
https://stardowe.github.io/?k~dhs8E
https://stardowe.github.io/?A5hSQYEJ~x
https://stardowe.github.io/?A5xEWHAJx~
https://stardowe.github.io/?A6G7Y~hfJx
https://stardowe.github.io/?~A5JafSYJx
https://stardowe.github.io/?A6C~k8eOJx
https://stardowe.github.io/?A5nbUATJx~
https://stardowe.github.io/?A6h~WVQpJx
https://stardowe.github.io/?A5Kp~F0TJx
https://stardowe.github.io/?A~5fgJiNJx
https://stardowe.github.io/?A5d~BFhwJx
https://stardowe.github.io/?A6I4kJ~lJx
https://stardowe.github.io/?A6rhHzbJx~
https://stardowe.github.io/?A~6jd2pnJx
https://stardowe.github.io/?A6O~nHRGJx
https://stardowe.github.io/?ASor~7ggJx
https://stardowe.github.io/?A6cL66SJ~x
https://stardowe.github.io/?A5yY3yc~Jx
https://stardowe.github.io/?~A6W0ftJJx
https://stardowe.github.io/?A~6SfHCyJx
https://stardowe.github.io/?ASvkN9~7Jx
https://stardowe.github.io/?A6FNm~9gJx
https://stardowe.github.io/?5oQQ8V~
https://stardowe.github.io/?A5w8m~MQJx
https://stardowe.github.io/?A~5bS5RkJx
https://stardowe.github.io/?A~6Hav3HJx
https://stardowe.github.io/?Adgj81SJ~x
https://stardowe.github.io/?~A5Lj7kQJx
https://stardowe.github.io/?A5k~lk5pJx
https://stardowe.github.io/?~A6045IcJx
https://stardowe.github.io/?A1CjMw8J~x
https://stardowe.github.io/?AvTjZ46J~x
https://stardowe.github.io/?A5~UQo4eJx
https://stardowe.github.io/?A5pDyVjJ~x
https://stardowe.github.io/?~AverXUOJx
https://stardowe.github.io/?Lkg~nciV9
https://stardowe.github.io/?A5~SlEFBJx
https://stardowe.github.io/?A5ISV6t~Jx
https://stardowe.github.io/?A6~DLiqQJx
https://stardowe.github.io/?A~5gV9NUJx
https://stardowe.github.io/?A6Nxbx~4Jx
https://stardowe.github.io/?A5U8EdMJx~
https://stardowe.github.io/?LQ11Vo~
https://stardowe.github.io/?A6mGg~jwJx
https://stardowe.github.io/?A5IU4~LiJx
https://stardowe.github.io/?A1NmpkF~Jx
https://stardowe.github.io/?A5M9ZPc~Jx
https://stardowe.github.io/?A5oMdOlJ~x
https://stardowe.github.io/?A61L~ubVJx
https://stardowe.github.io/?A1ZPEv~nJx
https://stardowe.github.io/?~AS3aZC8Jx
https://stardowe.github.io/?AdMS~7MWJx
https://stardowe.github.io/?ASHWf7ZJ~x
https://stardowe.github.io/?AvD~pb21Jx
https://stardowe.github.io/?AvOz~vlaJx
https://stardowe.github.io/?~A5JjcAXJx
https://stardowe.github.io/?A5o3p6jJx~
https://stardowe.github.io/?A5R2~5c4Jx
https://stardowe.github.io/?~A5b5EJiJx
https://stardowe.github.io/?A5bJZ~biJx
https://stardowe.github.io/?A5HE~UPxJx
https://stardowe.github.io/?A6xdi3RJ~x
https://stardowe.github.io/?A~vHsIw4Jx
https://stardowe.github.io/?ASviDK7~Jx
https://stardowe.github.io/?ASYh~JwVJx
https://stardowe.github.io/?A5U3S~jKJx
https://stardowe.github.io/?A6dzWbq~Jx
https://stardowe.github.io/?A6M~cCffJx
https://stardowe.github.io/?A5Yb~rrMJx
https://stardowe.github.io/?A66CIP~0Jx
https://stardowe.github.io/?S80Nn~7
https://stardowe.github.io/?DbkmFs~
https://stardowe.github.io/?A5~LLxgzJx
https://stardowe.github.io/?L~xyGRdV9
https://stardowe.github.io/?A~S8XtoRJx
https://stardowe.github.io/?A6gl1ySJ~x
https://stardowe.github.io/?A5aG~oFXJx
https://stardowe.github.io/?ASiIRVhJx~
https://stardowe.github.io/?~A5bogRGJx
https://stardowe.github.io/?A5ChJSHJ~x
https://stardowe.github.io/?axjx~nj
https://stardowe.github.io/?A6K~cGCdJx
https://stardowe.github.io/?A6OAozAJx~
https://stardowe.github.io/?ASJaCy~PJx
https://stardowe.github.io/?AgRGm~XzJx
https://stardowe.github.io/?A6HVQ6~eJx
https://stardowe.github.io/?~A57ZrJfJx
https://stardowe.github.io/?A5sv8zpJ~x
https://stardowe.github.io/?A5~GIdqxJx
https://stardowe.github.io/?A6~TIaoLJx
https://stardowe.github.io/?A6wizMB~Jx
https://stardowe.github.io/?A6~zQzWnJx
https://stardowe.github.io/?A5WROQiJ~x
https://stardowe.github.io/?A6HktSAJ~x
https://stardowe.github.io/?A~dFGZvnJx
https://stardowe.github.io/?A5tJyh~bJx
https://stardowe.github.io/?A52d6BPJx~
https://stardowe.github.io/?hFR~Knm
https://stardowe.github.io/?Avy6~ygTJx
https://stardowe.github.io/?A5FGA~EPJx
https://stardowe.github.io/?~A1IjhSUJx
https://stardowe.github.io/?1~QU7nC
https://stardowe.github.io/?AdP3ectJ~x
https://stardowe.github.io/?AShJ~6KgJx
https://stardowe.github.io/?A~5esc3bJx
https://stardowe.github.io/?A5GwWSEJ~x
https://stardowe.github.io/?ASyAy7~jJx
https://stardowe.github.io/?Ad~ckCgfJx
https://stardowe.github.io/?A~5jh78yJx
https://stardowe.github.io/?~AdD39sYJx
https://stardowe.github.io/?A1~YGtV6Jx
https://stardowe.github.io/?A~50wXwoJx
https://stardowe.github.io/?~A5jqiSZJx
https://stardowe.github.io/?A5AWma8J~x
https://stardowe.github.io/?A5Db~U3PJx
https://stardowe.github.io/?A5~h7M4YJx
https://stardowe.github.io/?A~5suFmdJx
https://stardowe.github.io/?~A6j6jCBJx
https://stardowe.github.io/?d~P7Q8J
https://stardowe.github.io/?A6fCoYEJx~
https://stardowe.github.io/?AS~7N3wyJx
https://stardowe.github.io/?A6X0q~tDJx
https://stardowe.github.io/?A5l~4am0Jx
https://stardowe.github.io/?Gr17~qoV9
https://stardowe.github.io/?Gv2l7~KV9
https://stardowe.github.io/?L~qrDlFV9
https://stardowe.github.io/?A6aX2lg~Jx
https://stardowe.github.io/?A5SA7p7~Jx
https://stardowe.github.io/?Avd~KWRvJx
https://stardowe.github.io/?A6FjT~IvJx
https://stardowe.github.io/?A17E~PutJx
https://stardowe.github.io/?3zIbny~
https://stardowe.github.io/?~A5OQ9WMJx
https://stardowe.github.io/?A6Cnu~mLJx
https://stardowe.github.io/?ASwD2~3OJx
https://stardowe.github.io/?A1BNcjXJx~
https://stardowe.github.io/?A6Fxk~npJx
https://stardowe.github.io/?A57B~vO4Jx
https://stardowe.github.io/?ASJnu0~5Jx
https://stardowe.github.io/?A5mWCIt~Jx
https://stardowe.github.io/?A6SFmqvJ~x
https://stardowe.github.io/?A5tH3v~dJx
https://stardowe.github.io/?~A6W7QlWJx
https://stardowe.github.io/?A~SyI67KJx
https://stardowe.github.io/?AdN~TD3TJx
https://stardowe.github.io/?~A5Gsgj8Jx
https://stardowe.github.io/?ASMPR2Z~Jx
https://stardowe.github.io/?A6jPJWPJ~x
https://stardowe.github.io/?Av8~yLh4Jx
https://stardowe.github.io/?AdrJ~T1EJx
https://stardowe.github.io/?A6CFwNH~Jx
https://stardowe.github.io/?nLV7n~i
https://stardowe.github.io/?A5SwkUkJ~x
https://stardowe.github.io/?A5ok2U~XJx
https://stardowe.github.io/?A5r~NymsJx
https://stardowe.github.io/?A54TuqYJ~x
https://stardowe.github.io/?A6Y~0sfJJx
https://stardowe.github.io/?ASrBkX1~Jx
https://stardowe.github.io/?~AgyOle0Jx
https://stardowe.github.io/?AgoJ9~snJx
https://stardowe.github.io/?Ag~XrmbzJx
https://stardowe.github.io/?A~1lKtgAJx
https://stardowe.github.io/?ASGaR~ueJx
https://stardowe.github.io/?A~vvkySQJx
https://stardowe.github.io/?A~6KHTmTJx
https://stardowe.github.io/?A~vkf1MeJx
https://stardowe.github.io/?ASiz1JqJx~
https://stardowe.github.io/?A5lDyusJx~
https://stardowe.github.io/?A5jP~VYtJx
https://stardowe.github.io/?A5w1~xEvJx
https://stardowe.github.io/?~uEdsn7
https://stardowe.github.io/?A6Hs~YG9Jx
https://stardowe.github.io/?A6jqkbj~Jx
https://stardowe.github.io/?Ag~KdL3PJx
https://stardowe.github.io/?E~qAV84
https://stardowe.github.io/?A5ojO~YQJx
https://stardowe.github.io/?A59~lOSDJx
https://stardowe.github.io/?Ag~apwtFJx
https://stardowe.github.io/?A5GLAVr~Jx
https://stardowe.github.io/?A~Sjxu69Jx
https://stardowe.github.io/?ASlwvAGJ~x
https://stardowe.github.io/?A~6iK8wpJx
https://stardowe.github.io/?Avr0o~rXJx
https://stardowe.github.io/?~A62EvHbJx
https://stardowe.github.io/?A5EPx1mJ~x
https://stardowe.github.io/?~5z53nB
https://stardowe.github.io/?5O8Tn~B
https://stardowe.github.io/?AxQ1~ytVJx
https://stardowe.github.io/?A5YJ7paJx~
https://stardowe.github.io/?AvJ4m1bJ~x
https://stardowe.github.io/?A~6g5ijKJx
https://stardowe.github.io/?A~6BWtKjJx
https://stardowe.github.io/?A6cpXl~MJx
https://stardowe.github.io/?ASjBfkhJx~
https://stardowe.github.io/?A~SrvLtvJx
https://stardowe.github.io/?A6a8uXgJx~
https://stardowe.github.io/?A6QhiUiJx~
https://stardowe.github.io/?A6Lksd9~Jx
https://stardowe.github.io/?A5plY1~KJx
https://stardowe.github.io/?~A5JhZVYJx
https://stardowe.github.io/?AS8bYZ~UJx
https://stardowe.github.io/?A6E1VmTJ~x
https://stardowe.github.io/?unPV8~V
https://stardowe.github.io/?~A5h9j02Jx
https://stardowe.github.io/?GF~eQNkV9
https://stardowe.github.io/?GxFxn~N
https://stardowe.github.io/?A~6phquBJx
https://stardowe.github.io/?G85pRj~V9
https://stardowe.github.io/?~A6iWebVJx
https://stardowe.github.io/?A6173VvJ~x
https://stardowe.github.io/?A60EwM~PJx
https://stardowe.github.io/?AS~7r6unJx
https://stardowe.github.io/?A6SaKX~6Jx
https://stardowe.github.io/?A5rPg8gJ~x
https://stardowe.github.io/?A5s~VjBtJx
https://stardowe.github.io/?A5rjGe1J~x
https://stardowe.github.io/?VneEn6~
https://stardowe.github.io/?A6XIDdVJ~x
https://stardowe.github.io/?Av~6XBM4Jx
https://stardowe.github.io/?Ag7c85N~Jx
https://stardowe.github.io/?~A6jp713Jx
https://stardowe.github.io/?A6BoKB~OJx
https://stardowe.github.io/?TgX5nw~
https://stardowe.github.io/?Av~FtoVrJx
https://stardowe.github.io/?A5l9scaJx~
https://stardowe.github.io/?A6v0Nb~wJx
https://stardowe.github.io/?AoE6lq~tJx
https://stardowe.github.io/?Ag~sdqx3Jx
https://stardowe.github.io/?A5idsMt~Jx
https://stardowe.github.io/?A64~H22LJx
https://stardowe.github.io/?A5wm89~sJx
https://stardowe.github.io/?~Av3p2aOJx
https://stardowe.github.io/?A5tcY~LJJx
https://stardowe.github.io/?A6pAcgrJ~x
https://stardowe.github.io/?A60~iJVmJx
https://stardowe.github.io/?Av~v75XMJx
https://stardowe.github.io/?A5T32TiJx~
https://stardowe.github.io/?~A6b0O1WJx
https://stardowe.github.io/?A6~9HYETJx
https://stardowe.github.io/?A5h3~7daJx
https://stardowe.github.io/?AoV9SC~IJx
https://stardowe.github.io/?~A6EI1ODJx
https://stardowe.github.io/?A5DdrpYJx~
https://stardowe.github.io/?A6BHpFAJ~x
https://stardowe.github.io/?A5~Ppq4BJx
https://stardowe.github.io/?A5qV~KnaJx
https://stardowe.github.io/?A5T0ZVJ~Jx
https://stardowe.github.io/?A54I~L30Jx
https://stardowe.github.io/?A5~TEmLLJx
https://stardowe.github.io/?A1ib~4PVJx
https://stardowe.github.io/?~A6bnsDAJx
https://stardowe.github.io/?ASegz~z9Jx
https://stardowe.github.io/?XzC4V~9
https://stardowe.github.io/?AdbKBK~UJx
https://stardowe.github.io/?AgFCNSnJ~x
https://stardowe.github.io/?~AvsY2sAJx
https://stardowe.github.io/?A5Ja~iCqJx
https://stardowe.github.io/?A62b~OVDJx
https://stardowe.github.io/?A5h7~4phJx
https://stardowe.github.io/?A5FvI~ZYJx
https://stardowe.github.io/?AdRW9vrJ~x
https://stardowe.github.io/?Avxgfiu~Jx
https://stardowe.github.io/?ASHVxI0~Jx
https://stardowe.github.io/?A6vxzS~kJx
https://stardowe.github.io/?A5TSZ3i~Jx
https://stardowe.github.io/?Av~kRHh8Jx
https://stardowe.github.io/?A5w~u9R3Jx
https://stardowe.github.io/?ASU~OTqKJx
https://stardowe.github.io/?A5N3MhF~Jx
https://stardowe.github.io/?A5iU5igJx~
https://stardowe.github.io/?HKt~onw
https://stardowe.github.io/?Av7NmzUJx~
https://stardowe.github.io/?A6vB9G~WJx
https://stardowe.github.io/?AoVtdma~Jx
https://stardowe.github.io/?L~WkiV9V9
https://stardowe.github.io/?A5LX2wHJ~x
https://stardowe.github.io/?ASB~92GgJx
https://stardowe.github.io/?AvQR~RrKJx
https://stardowe.github.io/?A53Sx~X0Jx
https://stardowe.github.io/?AoVChHbJ~x
https://stardowe.github.io/?~ASRX0i5Jx
https://stardowe.github.io/?ASKwwwXJx~
https://stardowe.github.io/?A6Z5vO~1Jx
https://stardowe.github.io/?A~vvjvucJx
https://stardowe.github.io/?A5~OuyGmJx
https://stardowe.github.io/?A1SN~74LJx
https://stardowe.github.io/?AgLwJQ~7Jx
https://stardowe.github.io/?A5~xOAmRJx
https://stardowe.github.io/?A6cs~Y1PJx
https://stardowe.github.io/?~A6jzANeJx
https://stardowe.github.io/?A6k~MPx3Jx
https://stardowe.github.io/?AdXe~sHPJx
https://stardowe.github.io/?A6DsTm~FJx
https://stardowe.github.io/?A1Lq968~Jx
https://stardowe.github.io/?99tNnw~
https://stardowe.github.io/?A5jMI97~Jx
https://stardowe.github.io/?A6o7~dDHJx
https://stardowe.github.io/?Adi6fC~NJx
https://stardowe.github.io/?A5Qh2X0~Jx
https://stardowe.github.io/?A~dHIV4EJx
https://stardowe.github.io/?A5~wU3XsJx
https://stardowe.github.io/?A~SVlbwSJx
https://stardowe.github.io/?A6umZY0~Jx
https://stardowe.github.io/?A6mufaW~Jx
https://stardowe.github.io/?A5FtPJpJx~
https://stardowe.github.io/?A5wjkZ1Jx~
https://stardowe.github.io/?A5id~WlOJx
https://stardowe.github.io/?ASPmi~v9Jx
https://stardowe.github.io/?~A6yXjNYJx
https://stardowe.github.io/?A6Poo~TFJx
https://stardowe.github.io/?A6rAH~brJx
https://stardowe.github.io/?A6n43X~qJx
https://stardowe.github.io/?~A6CLgtyJx
https://stardowe.github.io/?A5~cBJtOJx
https://stardowe.github.io/?A64VwtaJx~
https://stardowe.github.io/?A~S2BlqKJx
https://stardowe.github.io/?A5~afeu6Jx
https://stardowe.github.io/?Av~bUeEAJx
https://stardowe.github.io/?A~6iwph6Jx
https://stardowe.github.io/?A6x40MD~Jx
https://stardowe.github.io/?A6DXYmOJx~
https://stardowe.github.io/?AS~CEwXQJx
https://stardowe.github.io/?A6gMd3wJx~
https://stardowe.github.io/?A6aC3J2Jx~
https://stardowe.github.io/?A5NwKtiJ~x
https://stardowe.github.io/?A6BabfVJx~
https://stardowe.github.io/?A5gEHTX~Jx
https://stardowe.github.io/?A1hthERJ~x
https://stardowe.github.io/?AvjsrXaJx~
https://stardowe.github.io/?A53mBF2~Jx
https://stardowe.github.io/?A5BnP~xwJx
https://stardowe.github.io/?A5ALMGNJx~
https://stardowe.github.io/?A5~m5k4IJx
https://stardowe.github.io/?AvoA1T~5Jx
https://stardowe.github.io/?A6gT2iK~Jx
https://stardowe.github.io/?Av~yh6ISJx
https://stardowe.github.io/?A6~1iT1kJx
https://stardowe.github.io/?A~5fsJ4lJx
https://stardowe.github.io/?ASNrMBGJ~x
https://stardowe.github.io/?A5jQ~v9nJx
https://stardowe.github.io/?ASy~g7TvJx
https://stardowe.github.io/?A~SEHWbMJx
https://stardowe.github.io/?A6OU443Jx~
https://stardowe.github.io/?~A5kg7LwJx
https://stardowe.github.io/?A5G33pC~Jx
https://stardowe.github.io/?A6~i2XMFJx
https://stardowe.github.io/?ASW~IaMkJx
https://stardowe.github.io/?A5At~P57Jx
https://stardowe.github.io/?A5hgVlMJ~x
https://stardowe.github.io/?A5Rsz52~Jx
https://stardowe.github.io/?A6wpZP5J~x
https://stardowe.github.io/?A~5h4d3jJx
https://stardowe.github.io/?A~oE4I0IJx
https://stardowe.github.io/?A~5kEGT8Jx
https://stardowe.github.io/?A6Sw57mJ~x
https://stardowe.github.io/?Ag~oJzEFJx
https://stardowe.github.io/?A6rP~8SPJx
https://stardowe.github.io/?A6v9mgfJ~x
https://stardowe.github.io/?A5yp2n~GJx
https://stardowe.github.io/?~AgmuV0PJx
https://stardowe.github.io/?~AdzZYlVJx
https://stardowe.github.io/?A6biU~X9Jx
https://stardowe.github.io/?Avgn6cO~Jx
https://stardowe.github.io/?A6xPFSlJ~x
https://stardowe.github.io/?AvljfW~TJx
https://stardowe.github.io/?A~6pqkTpJx
https://stardowe.github.io/?AS11sfuJ~x
https://stardowe.github.io/?A5v~NfFKJx
https://stardowe.github.io/?A5clNtSJ~x
https://stardowe.github.io/?ASYwXafJ~x
https://stardowe.github.io/?ASE4Hm0J~x
https://stardowe.github.io/?A~vzgKbdJx
https://stardowe.github.io/?A6A99o~gJx
https://stardowe.github.io/?A6JN15~vJx
https://stardowe.github.io/?Z~zgfni
https://stardowe.github.io/?A6b5zNB~Jx
https://stardowe.github.io/?A5oPOFf~Jx
https://stardowe.github.io/?~AgStxeZJx
https://stardowe.github.io/?A5hsz~K6Jx
https://stardowe.github.io/?ASmznT7Jx~
https://stardowe.github.io/?ASu0yLH~Jx
https://stardowe.github.io/?A~6bBfB4Jx
https://stardowe.github.io/?LO~8Tni
https://stardowe.github.io/?A5fTvrzJ~x
https://stardowe.github.io/?A5h7K~XQJx
https://stardowe.github.io/?A6dgh~fBJx
https://stardowe.github.io/?A61F~bpfJx
https://stardowe.github.io/?AS~gTOVKJx
https://stardowe.github.io/?AdC6QtaJ~x
https://stardowe.github.io/?P1~zlnd
https://stardowe.github.io/?ASj4YQ~OJx
https://stardowe.github.io/?AdV~C51UJx
https://stardowe.github.io/?A5JMxYrJ~x
https://stardowe.github.io/?A5o2p~rVJx
https://stardowe.github.io/?A60RFC~HJx
https://stardowe.github.io/?ASCA7~OPJx
https://stardowe.github.io/?A~SzD4CzJx
https://stardowe.github.io/?A~dODFJwJx
https://stardowe.github.io/?ASMXvz~GJx
https://stardowe.github.io/?A68~1UDZJx
https://stardowe.github.io/?A5Xku~fgJx
https://stardowe.github.io/?A6u~aFPWJx
https://stardowe.github.io/?j~xAje
https://stardowe.github.io/?ASld9q~4Jx
https://stardowe.github.io/?~ftIxnk
https://stardowe.github.io/?A~6jCThAJx
https://stardowe.github.io/?A5Hs~Tj9Jx
https://stardowe.github.io/?L5nUArV~9
https://stardowe.github.io/?A6b6~3mYJx
https://stardowe.github.io/?~A5nL2ZFJx
https://stardowe.github.io/?A~1lAEytJx
https://stardowe.github.io/?A6CIaRIJx~
https://stardowe.github.io/?Av~2uHqMJx
https://stardowe.github.io/?AvlGnP~QJx
https://stardowe.github.io/?Av~nHASpJx
https://stardowe.github.io/?~A6vuq9SJx
https://stardowe.github.io/?GZHgs1V~9
https://stardowe.github.io/?ASCUFMuJ~x
https://stardowe.github.io/?A6jq2q~hJx
https://stardowe.github.io/?A5zmEKz~Jx
https://stardowe.github.io/?A~6iwzznJx
https://stardowe.github.io/?A59FD1AJ~x
https://stardowe.github.io/?A5487~YrJx
https://stardowe.github.io/?A6BnNbVJ~x
https://stardowe.github.io/?A5~RPasdJx
https://stardowe.github.io/?A6xI31y~Jx
https://stardowe.github.io/?ASCr~UixJx
https://stardowe.github.io/?AvB~2KKVJx
https://stardowe.github.io/?AdsB~FsuJx
https://stardowe.github.io/?~A6CKgxDJx
https://stardowe.github.io/?A5e74N9Jx~
https://stardowe.github.io/?A1zZfE~XJx
https://stardowe.github.io/?A5BoQ3jJx~
https://stardowe.github.io/?A63~ZPgPJx
https://stardowe.github.io/?A62w~AG0Jx
https://stardowe.github.io/?A6~wCZg9Jx
https://stardowe.github.io/?A6QhF6gJ~x
https://stardowe.github.io/?A5Is1~HpJx
https://stardowe.github.io/?~A5vn2qIJx
https://stardowe.github.io/?A5Y77v~qJx
https://stardowe.github.io/?A64s~SkpJx